%%%%%%%%%%%%%%%%%%%%%%%%%%%%%%%%%%%%%%%%%%%%%%%%%%%%%%%%%%%%%%%%%%%%%%%%%%%%%%%%
%                                                                              %
% SU2 configuration file                                                       %
% Case description: ONERA M6 wing in inviscid, transonic flow                  %
% Author: Thomas D. Economon	      	      	              	       	       %
% Institution: Stanford University				               %
% Date: 2015.08.25                                                             %
% File Version 5.0.0 "Raven"                                                %
%                                                                              %
%%%%%%%%%%%%%%%%%%%%%%%%%%%%%%%%%%%%%%%%%%%%%%%%%%%%%%%%%%%%%%%%%%%%%%%%%%%%%%%%

% ------------- DIRECT, ADJOINT, AND LINEARIZED PROBLEM DEFINITION ------------%

SOLVER= EULER
MATH_PROBLEM= DIRECT
RESTART_SOL= NO

% -------------------- COMPRESSIBLE FREE-STREAM DEFINITION --------------------%

MACH_NUMBER= 0.8395
AOA= 3.06
SIDESLIP_ANGLE= 0.0
FREESTREAM_PRESSURE= 101325.0
FREESTREAM_TEMPERATURE= 288.15

% ---------------------- REFERENCE VALUE DEFINITION ---------------------------%
%
REF_ORIGIN_MOMENT_X = 0.25
REF_ORIGIN_MOMENT_Y = 0.00
REF_ORIGIN_MOMENT_Z = 0.00
REF_LENGTH= 1.0
REF_AREA= 0
REF_DIMENSIONALIZATION= FREESTREAM_VEL_EQ_ONE

% ----------------------- BOUNDARY CONDITION DEFINITION -----------------------%

MARKER_EULER= ( WING )
MARKER_FAR= ( FARFIELD )
MARKER_SYM= ( SYMMETRY )
MARKER_PLOTTING= ( WING )
MARKER_MONITORING= ( WING )

% ------------- COMMON PARAMETERS TO DEFINE THE NUMERICAL METHOD --------------%
%

OBJECTIVE_FUNCTION= DRAG
NUM_METHOD_GRAD= WEIGHTED_LEAST_SQUARES
CFL_NUMBER= 25.0
CFL_ADAPT= YES
CFL_ADAPT_PARAM= ( 0.1, 2.0, 25.0, 1e10 )
RK_ALPHA_COEFF= ( 0.66667, 0.66667, 1.000000 )

ITER= 20

LINEAR_SOLVER= FGMRES
LINEAR_SOLVER_PREC= ILU
LINEAR_SOLVER_ERROR= 1E-6
LINEAR_SOLVER_ITER= 10

% ----------------------- SLOPE LIMITER DEFINITION ----------------------------%

VENKAT_LIMITER_COEFF= 0.03
ADJ_SHARP_LIMITER_COEFF= 3.0
REF_SHARP_EDGES= 3.0
SENS_REMOVE_SHARP= YES

% -------------------------- MULTIGRID PARAMETERS -----------------------------%

MGLEVEL= 3
MGCYCLE= W_CYCLE
MG_PRE_SMOOTH= ( 1, 2, 3, 3 )
MG_POST_SMOOTH= ( 0, 0, 0, 0 )
MG_CORRECTION_SMOOTH= ( 0, 0, 0, 0 )
MG_DAMP_RESTRICTION= 0.9
MG_DAMP_PROLONGATION= 0.9

% -------------------- FLOW NUMERICAL METHOD DEFINITION -----------------------%

CONV_NUM_METHOD_FLOW= JST
JST_SENSOR_COEFF= ( 0.5, 0.02 )
TIME_DISCRE_FLOW= EULER_IMPLICIT

% --------------------------- CONVERGENCE PARAMETERS --------------------------&

CONV_FIELD= RMS_DENSITY
CONV_RESIDUAL_MINVAL= -12
CONV_STARTITER= 5
CONV_CAUCHY_ELEMS= 100
CONV_CAUCHY_EPS= 1E-10

% ------------------------- INPUT/OUTPUT INFORMATION --------------------------%

% OUTPUT_FILES = (RESTART, PARAVIEW, SURFACE_PARAVIEW)

MESH_FORMAT= SU2
MESH_FILENAME= mesh_ONERAM6_inv_ffd.su2
SOLUTION_FILENAME= solution_flow.dat
SOLUTION_ADJ_FILENAME= solution_adj.dat

TABULAR_FORMAT= CSV
CONV_FILENAME= history
RESTART_FILENAME= restart_flow.dat
RESTART_ADJ_FILENAME= restart_adj.dat
VOLUME_FILENAME= flow
VOLUME_ADJ_FILENAME= adjoint
GRAD_OBJFUNC_FILENAME= of_grad.dat
SURFACE_FILENAME= surface_flow
SURFACE_ADJ_FILENAME= surface_adjoint
OUTPUT_WRT_FREQ= 20
SCREEN_OUTPUT= (INNER_ITER, WALL_TIME, RMS_DENSITY, RMS_ENERGY, LIFT, DRAG)


% Aeroelastic case definitions

MARKER_FLUID_LOAD = ( WING )
MARKER_DEFORM_MESH = ( WING )

DEFORM_MESH = YES

DEFORM_STIFFNESS_TYPE = WALL_DISTANCE
DEFORM_LINEAR_SOLVER = CONJUGATE_GRADIENT
DEFORM_LINEAR_SOLVER_PREC = ILU
DEFORM_LINEAR_SOLVER_ERROR = 1E-8
DEFORM_LINEAR_SOLVER_ITER = 1000
DEFORM_CONSOLE_OUTPUT = YES
